We are trying to append contents.
New line.
We are trying to append contents.
New line.	