We are trying to append contents.
New line.